\.bpred_dir_rate\b
sim_IPC
sim-outorder
100000000
applu;art;gzip;mesa;twolf	applu;art;gzip;mesa;twolf
0.8429;0.9477;0.7961;0.7533;0.7508	1.0529;0.0759;1.3949;1.5220;1.5718
0.8446;0.9515;0.8733;0.8296;0.8466	1.0529;0.0759;1.5264;1.5951;1.7469
0.8446;0.9516;0.8991;0.8848;0.9119	1.0529;0.0759;1.5756;1.7276;1.8704
0.8463;0.9516;0.8995;0.9608;0.9611	1.0530;0.0759;1.5765;1.9290;2.0403
0.8463;0.9516;0.8995;0.9661;0.9704	1.0530;0.0759;1.5765;1.9588;2.0747
