Max instr: 100000000
Sim path: ../../simplesim-3.0_acx2/sim-outorder
Param control: \.bpred_dir_rate\b
Param control: sim_IPC
applu;art;gzip;mesa;twolf	applu;art;gzip;mesa;twolf
0.8394;0.9149;0.8029;0.7141;0.7240	1.0528;0.0759;1.4096;1.4040;1.4706
0.8463;0.9515;0.8485;0.7974;0.8178	1.0530;0.0759;1.4778;1.5537;1.6537
0.8463;0.9515;0.8873;0.8653;0.8861	1.0530;0.0759;1.5504;1.6949;1.8337
0.8961;0.9515;0.8911;0.9226;0.9191	1.0563;0.0759;1.5597;1.8750;1.9165
0.9931;0.9515;0.9089;0.9597;0.9591	1.0564;0.0759;1.5936;1.9877;2.0661
0.9957;0.9515;0.9096;0.9758;0.9800	1.0564;0.0759;1.5958;2.0184;2.1328
