Max instr: 100000000
Sim path: ../simplesim-mod/sim-outorder
Param control: \.bpred_dir_rate\b
Param control: sim_IPC
applu;art;gzip;mesa;twolf	applu;art;gzip;mesa;twolf
0.8399;0.9265;0.7860;0.7030;0.7042	1.0529;0.0759;1.3835;1.4469;1.4391
0.8442;0.9549;0.8372;0.7951;0.7831	1.0529;0.0759;1.4620;1.5816;1.5869
0.8137;0.9524;0.8917;0.8618;0.8840	1.0491;0.0759;1.5651;1.6990;1.8163
0.8935;0.9524;0.9055;0.9230;0.9406	1.0562;0.0759;1.5901;1.8652;1.9743
0.9888;0.9663;0.9170;0.9769;0.9751	1.0562;0.0760;1.6130;2.0384;2.1303
0.9914;0.9663;0.9123;0.9685;0.9780	1.0562;0.0760;1.6039;2.0039;2.1323
