\.bpred_dir_rate\b
sim_IPC
sim-outorder
100000000
applu;art;gzip;mesa;twolf	applu;art;gzip;mesa;twolf
0.8377;0.9173;0.7539;0.6817;0.7161	1.0527;0.0758;1.3214;1.3979;1.4700
0.8945;0.9500;0.8013;0.7362;0.7275	1.0556;0.0759;1.4050;1.4903;1.4999
0.9811;0.9488;0.8597;0.8126;0.8070	1.0560;0.0759;1.4968;1.6081;1.6603
0.9862;0.9460;0.8817;0.8789;0.8861	1.0559;0.0759;1.5411;1.7532;1.8273
0.9897;0.9940;0.8869;0.9350;0.9167	1.0562;0.0761;1.5496;1.9217;1.9171
0.9897;0.9941;0.8839;0.9337;0.9219	1.0562;0.0761;1.5441;1.9179;1.9358
