\.bpred_dir_rate\b
sim_IPC
sim-outorder
100000000
applu;art;gzip;mesa;twolf	applu;art;gzip;mesa;twolf
0.8090;0.9275;0.7594;0.7214;0.7019	1.0490;0.0758;1.3440;1.4743;1.4431
0.9781;0.9423;0.8114;0.7346;0.7672	1.0560;0.0758;1.4207;1.4537;1.5735
0.9940;0.9825;0.8537;0.8339;0.8448	1.0564;0.0760;1.4959;1.6246;1.7305
0.9957;0.9940;0.8877;0.9138;0.9296	1.0564;0.0761;1.5550;1.8420;1.9599
0.9957;0.9941;0.9098;0.9623;0.9701	1.0564;0.0761;1.6000;1.9893;2.0950
