\.bpred_dir_rate\b
sim_IPC
sim-outorder
100
applu;art;gzip;mesa;twolf	applu;art;gzip;mesa;twolf
0.0000;0.0000;0.2222;0.2727;0.2941	0.4505;0.6048;0.2092;0.2073;0.1866
0.0000;0.0000;0.2222;0.2727;0.2941	0.4505;0.6048;0.2092;0.2057;0.1890
	0.4831;0.8632;0.2370;0.2280;0.1938
