\.bpred_dir_rate\b
sim_IPC
sim-outorder
100000000
applu;art;gzip;mesa;twolf	applu;art;gzip;mesa;twolf
0.8352;0.8963;0.7858;0.7488;0.7617	1.0525;0.0758;1.3917;1.5100;1.5564
0.9326;0.8909;0.8104;0.7580;0.7598	1.0557;0.0758;1.4229;1.5274;1.5788
0.9365;0.9030;0.8381;0.7766;0.8041	1.0557;0.0759;1.4750;1.5111;1.6338
0.9364;0.9163;0.8467;0.8077;0.8270	1.0557;0.0760;1.4933;1.5746;1.6567
0.9352;0.9368;0.8541;0.8303;0.8356	1.0555;0.0760;1.5087;1.6078;1.6763
